psse/psse-converter/src/test/resources/full_export.rawx
{
  "network" : {
    "caseid" : {
      "fields" : [ "ic", "sbase", "rev", "xfrrat", "nxfrat", "basfrq", "title1", "title2" ],
      "data" : [ 0,100.0,35,0,0,50.0,"Fri, 1 Jan 2016 10:00:00 +0200 Psse.fullExport","" ]
    },
    "bus" : {
      "fields" : [ "ibus", "name", "baskv", "ide", "area", "zone", "owner", "vm", "va", "nvhi", "nvlo", "evhi", "evlo" ],
      "data" : [
        [ 1,"Vl1-Sub1_1",400.0,3,1,1,1,1.0,0.0,1.1,0.9,1.1,0.9 ],
        [ 2,"Vl1-Sub2_1",400.0,1,1,1,1,1.0,0.0,1.1,0.9,1.1,0.9 ],
        [ 3,"Vl1-Sub3_1",400.0,1,1,1,1,1.0,0.0,1.1,0.9,1.1,0.9 ],
        [ 4,"BoundaryLine",400.0,2,1,1,1,1.0,0.0,1.1,0.9,1.1,0.9 ],
        [ 5,"Vl2-Sub3_0",25.0,1,1,1,1,1.0,0.0,1.1,0.9,1.1,0.9 ],
        [ 6,"Vl1-Sub4_1",400.0,1,1,1,1,1.0,0.0,1.1,0.9,1.1,0.9 ],
        [ 7,"Vl2-Sub4_1",110.0,1,1,1,1,1.0,0.0,1.1,0.9,1.1,0.9 ],
        [ 8,"Vl3-Sub4_1",25.0,1,1,1,1,1.0,0.0,1.1,0.9,1.1,0.9 ],
        [ 9,"Vl1-Sub5_1",400.0,1,1,1,1,1.0,0.0,1.1,0.9,1.1,0.9 ],
        [ 10,"BoundaryLine",400.0,1,1,1,1,1.0,0.0,1.1,0.9,1.1,0.9 ],
        [ 11,"Vl1-Sub6_1",400.0,1,1,1,1,1.0,0.0,1.1,0.9,1.1,0.9 ],
        [ 12,"Vl1-Sub7_0",400.0,1,1,1,1,1.0,0.0,1.1,0.9,1.1,0.9 ]
      ]
    },
    "load" : {
      "fields" : [ "ibus", "loadid", "stat", "area", "zone", "pl", "ql", "ip", "iq", "yp", "yq", "owner", "scale", "intrpt", "dgenp", "dgenq", "dgenm", "loadtype" ],
      "data" : [
        [ 3,"01",1,1,1,25.0,5.0,0.0,0.0,0.0,0.0,1,1,0,0.0,0.0,0,"" ],
        [ 5,"01",1,1,1,10.0,2.0,0.0,0.0,0.0,0.0,1,1,0,0.0,0.0,0,"" ],
        [ 7,"01",1,1,1,12.0,4.0,0.0,0.0,0.0,0.0,1,1,0,0.0,0.0,0,"" ],
        [ 9,"01",1,1,1,-14.0,-3.5,0.0,0.0,0.0,0.0,1,1,0,0.0,0.0,0,"" ],
        [ 9,"02",1,1,1,2.0,0.25,0.0,0.0,0.0,0.0,1,1,0,0.0,0.0,0,"" ],
        [ 10,"01",1,1,1,7.0,1.25,0.0,0.0,0.0,0.0,1,1,0,0.0,0.0,0,"" ],
        [ 11,"01",1,1,1,5.0,2.0,0.0,0.0,0.0,0.0,1,1,0,0.0,0.0,0,"" ],
        [ 12,"01",1,1,1,5.0,0.5,0.0,0.0,0.0,0.0,1,1,0,0.0,0.0,0,"" ]
      ]
    },
    "fixshunt" : {
      "fields" : [ "ibus", "shntid", "stat", "gl", "bl" ],
      "data" : [
        [ 6,"01",1,160.0,16000.0 ],
        [ 7,"01",1,12.1,1210.0 ]
      ]
    },
    "generator" : {
      "fields" : [ "ibus", "machid", "pg", "qg", "qt", "qb", "vs", "ireg", "nreg", "mbase", "zr", "zx", "rt", "xt", "gtap", "stat", "rmpct", "pt", "pb", "baslod", "o1", "f1", "o2", "f2", "o3", "f3", "o4", "f4", "wmod", "wpf" ],
      "data" : [
        [ 1,"01",50.0,10.0,230.0,-225.0,1.0125,0,4,100.0,0.0,1.0,0.0,0.0,1.0,1,100.0,100.0,1.0,0,1,1.0,0,1.0,0,1.0,0,1.0,0,1.0 ],
        [ 4,"01",10.5,2.5,35.0,-25.0,1.0125,4,0,100.0,0.0,1.0,0.0,0.0,1.0,1,100.0,100.0,0.0,0,1,1.0,0,1.0,0,1.0,0,1.0,0,1.0 ],
        [ 8,"01",0.5,5.5,230.0,-225.0,1.0,0,12,100.0,0.0,1.0,0.0,0.0,1.0,1,100.0,100.0,1.0,0,1,1.0,0,1.0,0,1.0,0,1.0,0,1.0 ],
        [ 9,"01",2.0,2.0,230.0,-225.0,1.0,0,4,100.0,0.0,1.0,0.0,0.0,1.0,0,100.0,100.0,1.0,0,1,1.0,0,1.0,0,1.0,0,1.0,0,1.0 ]
      ]
    },
    "acline" : {
      "fields" : [ "ibus", "jbus", "ckt", "rpu", "xpu", "bpu", "name", "rate1", "rate2", "rate3", "rate4", "rate5", "rate6", "rate7", "rate8", "rate9", "rate10", "rate11", "rate12", "gi", "bi", "gj", "bj", "stat", "met", "len", "o1", "f1", "o2", "f2", "o3", "f3", "o4", "f4" ],
      "data" : [
        [ 1,2,"01",0.00625,0.05625,0.0,"Line-Vl1-Sub1-Vl1-Sub2",346.41016151377545,381.05117766515303,0.0,0.0,0.0,0.0,0.0,0.0,0.0,0.0,0.0,0.0,0.0,0.0,0.0,0.0,1,1,0.0,1,1.0,0,1.0,0,1.0,0,1.0 ],
        [ 1,6,"01",0.00625,0.05625,0.0,"Line-Vl1-Sub1-Vl1-Sub4",346.41016151377545,381.05117766515303,0.0,0.0,0.0,0.0,0.0,0.0,0.0,0.0,0.0,0.0,0.0,0.0,0.0,0.0,1,1,0.0,1,1.0,0,1.0,0,1.0,0,1.0 ],
        [ 1,9,"01",0.00625,0.05625,0.0,"Line-Vl1-Sub1-Vl1-Sub5",346.41016151377545,381.05117766515303,0.0,0.0,0.0,0.0,0.0,0.0,0.0,0.0,0.0,0.0,0.0,0.0,0.0,0.0,1,1,0.0,1,1.0,0,1.0,0,1.0,0,1.0 ],
        [ 1,12,"01",0.009375,0.0625,0.0,"Line-Vl1-Sub1-Vl1-Sub7",346.41016151377545,381.05117766515303,0.0,0.0,0.0,0.0,0.0,0.0,0.0,0.0,0.0,0.0,0.0,0.0,0.0,0.0,1,1,0.0,1,1.0,0,1.0,0,1.0,0,1.0 ],
        [ 2,3,"01",0.00625,0.05625,0.0,"Line-Vl1-Sub2-Vl1-Sub3",346.41016151377545,381.05117766515303,0.0,0.0,0.0,0.0,0.0,0.0,0.0,0.0,0.0,0.0,0.0,0.0,0.0,0.0,1,1,0.0,1,1.0,0,1.0,0,1.0,0,1.0 ],
        [ 2,11,"01",0.012499999999999995,0.1125,0.0,"TieLine-Vl1-Sub2-Vl1-Sub6",0.0,0.0,0.0,0.0,0.0,0.0,0.0,0.0,0.0,0.0,0.0,0.0,32.0,1919.9999999999993,32.0,1919.9999999999993,1,1,0.0,1,1.0,0,1.0,0,1.0,0,1.0 ],
        [ 3,4,"01",0.003125,0.053125,0.0,"BoundaryLine-Vl1-S3",0.0,0.0,0.0,0.0,0.0,0.0,0.0,0.0,0.0,0.0,0.0,0.0,0.0,0.0,0.0,0.0,1,1,0.0,1,1.0,0,1.0,0,1.0,0,1.0 ],
        [ 9,10,"01",0.00625,0.05625,0.0,"BoundaryLine-Vl1-Sub5",0.0,0.0,0.0,0.0,0.0,0.0,0.0,0.0,0.0,0.0,0.0,0.0,32.0,1920.0,0.0,0.0,1,1,0.0,1,1.0,0,1.0,0,1.0,0,1.0 ]
      ]
    },
    "transformer" : {
      "fields" : [ "ibus", "jbus", "kbus", "ckt", "cw", "cz", "cm", "mag1", "mag2", "nmet", "name", "stat", "o1", "f1", "o2", "f2", "o3", "f3", "o4", "f4", "vecgrp", "zcod", "r1_2", "x1_2", "sbase1_2", "r2_3", "x2_3", "sbase2_3", "r3_1", "x3_1", "sbase3_1", "vmstar", "anstar", "windv1", "nomv1", "ang1", "wdg1rate1", "wdg1rate2", "wdg1rate3", "wdg1rate4", "wdg1rate5", "wdg1rate6", "wdg1rate7", "wdg1rate8", "wdg1rate9", "wdg1rate10", "wdg1rate11", "wdg1rate12", "cod1", "cont1", "node1", "rma1", "rmi1", "vma1", "vmi1", "ntp1", "tab1", "cr1", "cx1", "cnxa1", "windv2", "nomv2", "ang2", "wdg2rate1", "wdg2rate2", "wdg2rate3", "wdg2rate4", "wdg2rate5", "wdg2rate6", "wdg2rate7", "wdg2rate8", "wdg2rate9", "wdg2rate10", "wdg2rate11", "wdg2rate12", "cod2", "cont2", "node2", "rma2", "rmi2", "vma2", "vmi2", "ntp2", "tab2", "cr2", "cx2", "cnxa2", "windv3", "nomv3", "ang3", "wdg3rate1", "wdg3rate2", "wdg3rate3", "wdg3rate4", "wdg3rate5", "wdg3rate6", "wdg3rate7", "wdg3rate8", "wdg3rate9", "wdg3rate10", "wdg3rate11", "wdg3rate12", "cod3", "cont3", "node3", "rma3", "rmi3", "vma3", "vmi3", "ntp3", "tab3", "cr3", "cx3", "cnxa3" ],
      "data" : [
        [ 3,5,0,"01",1,1,1,6.25E-4,-0.00125,2,"T2w-Vl1-Vl2-Sub3",1,1,1.0,0,1.0,0,1.0,0,1.0,"            ",0,1.6E-4,0.0016,100.0,0.0,0.0,0.0,0.0,0.0,0.0,0.0,0.0,0.9900990099009901,0.0,0.0,0.0,0.0,0.0,0.0,0.0,0.0,0.0,0.0,0.0,0.0,0.0,0.0,0,0,0,1.1,0.9,1.1,0.9,33,0,0.0,0.0,0.0,1.0,0.0,0.0,0.0,0.0,0.0,0.0,0.0,0.0,0.0,0.0,0.0,0.0,0.0,0.0,0,0,0,1.1,0.9,1.1,0.9,33,0,0.0,0.0,0.0,1.0,0.0,0.0,0.0,0.0,0.0,0.0,0.0,0.0,0.0,0.0,0.0,0.0,0.0,0.0,0,0,0,1.1,0.9,1.1,0.9,33,0,0.0,0.0,0.0 ],
        [ 6,7,8,"01",1,1,1,0.16,-3.2,2,"T3w-Vl1-Vl2-Vl3-Sub4",1,1,1.0,0,1.0,0,1.0,0,1.0,"            ",0,6.25E-7,1.8750000000000003E-4,100.0,1.875E-6,2.8125000000000003E-4,100.0,1.25E-6,2.1874999999999998E-4,100.0,0.0,0.0,1.03,0.0,0.0,0.0,0.0,0.0,0.0,0.0,0.0,0.0,0.0,0.0,0.0,0.0,0.0,0,0,0,1.1,0.9,1.1,0.9,33,0,0.0,0.0,0.0,1.0,0.0,0.0,0.0,0.0,0.0,0.0,0.0,0.0,0.0,0.0,0.0,0.0,0.0,0.0,0,0,0,1.1,0.9,1.1,0.9,33,0,0.0,0.0,0.0,1.0,0.0,0.0,0.0,0.0,0.0,0.0,0.0,0.0,0.0,0.0,0.0,0.0,0.0,0.0,0,0,0,1.1,0.9,1.1,0.9,33,0,0.0,0.0,0.0 ]
      ]
    },
    "twotermdc" : {
      "fields" : [ "name", "mdc", "rdc", "setvl", "vschd", "vcmod", "rcomp", "delti", "met", "dcvmin", "cccitmx", "cccacc", "ipr", "nbr", "anmxr", "anmnr", "rcr", "xcr", "ebasr", "trr", "tapr", "tmxr", "tmnr", "stpr", "icr", "ndr", "ifr", "itr", "idr", "xcapr", "ipi", "nbi", "anmxi", "anmni", "rci", "xci", "ebasi", "tri", "tapi", "tmxi", "tmni", "stpi", "ici", "ndi", "ifi", "iti", "idi", "xcapi" ],
      "data" : [
        [ "Lcc-Vl1-Sub2",1,0.0015,35.0,400.0,0.0,0.0,0.0,"I",0.0,20,1.0,2,0,0.0,0.0,0.0,0.0,0.0,1.0,1.0,1.5,0.51,0.00625,0,0,0,0,"1",0.0,9,0,0.0,0.0,0.0,0.0,0.0,1.0,1.0,1.5,0.51,0.00625,0,0,0,0,"1",0.0 ]
      ]
    },
    "vscdc" : {
      "fields" : [ "name", "mdc", "rdc", "o1", "f1", "o2", "f2", "o3", "f3", "o4", "f4", "ibus1", "type1", "mode1", "dcset1", "acset1", "aloss1", "bloss1", "minloss1", "smax1", "imax1", "pwf1", "maxq1", "minq1", "vsreg1", "nreg1", "rmpct1", "ibus2", "type2", "mode2", "dcset2", "acset2", "aloss2", "bloss2", "minloss2", "smax2", "imax2", "pwf2", "maxq2", "minq2", "vsreg2", "nreg2", "rmpct2" ],
      "data" : [
        [ "Vsc-Vl1-Sub2",1,0.001,1,1.0,0,1.0,0,1.0,0,1.0,2,2,1,-25.0,1.0,-0.2500000118743628,0.0,0.0,0.0,0.0,1.0,300.0,-250.0,0,4,100.0,6,2,2,24.999246098870625,0.9999919996134918,0.499984945725422,0.0,0.0,0.0,0.0,1.0,310.0,-260.0,0,2,100.0 ]
      ]
    },
    "facts" : {
      "fields" : [ "name", "ibus", "jbus", "mode", "pdes", "qdes", "vset", "shmx", "trmx", "vtmn", "vtmx", "vsmx", "imx", "linx", "rmpct", "owner", "set1", "set2", "vsref", "fcreg", "nreg", "mname" ],
      "data" : [
        [ "StaticVar-Vl",8,0,1,0.0,0.0,1.02,6250.0,9999.0,0.9,1.1,1.0,0.0,0.05,100.0,1,0.0,0.0,0,6,3,"" ]
      ]
    },
    "swshunt" : {
      "fields" : [ "ibus", "shntid", "modsw", "adjm", "stat", "vswhi", "vswlo", "swreg", "nreg", "rmpct", "rmidnt", "binit", "s1", "n1", "b1", "s2", "n2", "b2", "s3", "n3", "b3", "s4", "n4", "b4", "s5", "n5", "b5", "s6", "n6", "b6", "s7", "n7", "b7", "s8", "n8", "b8" ],
      "data" : [
        [ 7,"01",1,0,1,1.0122727272727272,1.0077272727272726,0,8,100.0,"",1210.0,1,2,1210.0,1,0,0.0,1,0,0.0,1,0,0.0,1,0,0.0,1,0,0.0,1,0,0.0,1,0,0.0 ]
      ]
    },
    "sub" : {
      "fields" : [ "isub", "name", "lati", "long", "srg" ],
      "data" : [
        [ 1,"Sub1",0.0,0.0,0.1 ],
        [ 2,"Sub2",0.0,0.0,0.1 ],
        [ 3,"Sub3",0.0,0.0,0.1 ],
        [ 4,"Sub4",0.0,0.0,0.1 ],
        [ 5,"Sub5",0.0,0.0,0.1 ],
        [ 6,"Sub6",0.0,0.0,0.1 ]
      ]
    },
    "subnode" : {
      "fields" : [ "isub", "inode", "name", "ibus", "stat", "vm", "va" ],
      "data" : [
        [ 1,1,"Vl1-Sub1-1",1,1,1.0,0.0 ],
        [ 1,2,"Vl1-Sub1-2",1,1,1.0,0.0 ],
        [ 1,3,"Vl1-Sub1-3",1,1,1.0,0.0 ],
        [ 1,4,"Vl1-Sub1-4",1,1,1.0,0.0 ],
        [ 1,5,"Vl1-Sub1-5",1,1,1.0,0.0 ],
        [ 1,6,"Vl1-Sub1-6",1,1,1.0,0.0 ],
        [ 1,7,"Vl1-Sub1-7",1,1,1.0,0.0 ],
        [ 2,1,"Vl1-Sub2-1",2,1,1.0,0.0 ],
        [ 2,2,"Vl1-Sub2-2",2,1,1.0,0.0 ],
        [ 2,3,"Vl1-Sub2-3",2,1,1.0,0.0 ],
        [ 2,4,"Vl1-Sub2-4",2,1,1.0,0.0 ],
        [ 2,5,"Vl1-Sub2-5",2,1,1.0,0.0 ],
        [ 2,6,"Vl1-Sub2-6",2,1,1.0,0.0 ],
        [ 3,1,"Vl1-Sub3-1",3,1,1.0,0.0 ],
        [ 3,2,"Vl1-Sub3-2",3,1,1.0,0.0 ],
        [ 3,3,"Vl1-Sub3-3",3,1,1.0,0.0 ],
        [ 3,4,"Vl1-Sub3-4",3,1,1.0,0.0 ],
        [ 3,5,"Vl1-Sub3-5",3,1,1.0,0.0 ],
        [ 4,1,"Vl1-Sub4-1",6,1,1.0,0.0 ],
        [ 4,2,"Vl1-Sub4-2",6,1,1.0,0.0 ],
        [ 4,3,"Vl1-Sub4-3",6,1,1.0,0.0 ],
        [ 4,4,"Vl1-Sub4-4",6,1,1.0,0.0 ],
        [ 4,5,"Vl1-Sub4-5",6,1,1.0,0.0 ],
        [ 4,6,"Vl2-Sub4-1",7,1,1.0,0.0 ],
        [ 4,7,"Vl2-Sub4-2",7,1,1.0,0.0 ],
        [ 4,8,"Vl2-Sub4-3",7,1,1.0,0.0 ],
        [ 4,9,"Vl2-Sub4-4",7,1,1.0,0.0 ],
        [ 4,10,"Vl3-Sub4-1",8,1,1.0,0.0 ],
        [ 4,11,"Vl3-Sub4-2",8,1,1.0,0.0 ],
        [ 4,12,"Vl3-Sub4-3",8,1,1.0,0.0 ],
        [ 4,13,"Vl3-Sub4-4",8,1,1.0,0.0 ],
        [ 5,1,"Vl1-Sub5-1",9,1,1.0,0.0 ],
        [ 5,2,"Vl1-Sub5-2",9,1,1.0,0.0 ],
        [ 5,3,"Vl1-Sub5-3",9,1,1.0,0.0 ],
        [ 5,4,"Vl1-Sub5-4",9,0,1.0,0.0 ],
        [ 5,5,"Vl1-Sub5-5",9,1,1.0,0.0 ],
        [ 5,6,"Vl1-Sub5-6",9,1,1.0,0.0 ],
        [ 5,7,"Vl1-Sub5-7",9,1,1.0,0.0 ],
        [ 6,1,"Vl1-Sub6-1",11,1,1.0,0.0 ],
        [ 6,2,"Vl1-Sub6-2",11,1,1.0,0.0 ],
        [ 6,3,"Vl1-Sub6-3",11,1,1.0,0.0 ]
      ]
    },
    "subswd" : {
      "fields" : [ "isub", "inode", "jnode", "swdid", "name", "type", "stat", "nstat", "xpu", "rate1", "rate2", "rate3" ],
      "data" : [
        [ 1,1,2,"01","Sw1-Vl1-Sub1",2,1,1,1.0E-4,0.0,0.0,0.0 ],
        [ 1,1,3,"01","Sw-Line-Vl1-Sub1-Sub2",2,1,1,1.0E-4,0.0,0.0,0.0 ],
        [ 1,2,4,"01","Sw-Gen-Vl1-Sub1",2,1,1,1.0E-4,0.0,0.0,0.0 ],
        [ 1,2,5,"01","Sw-Line-Vl1-Sub1-Sub7",2,1,1,1.0E-4,0.0,0.0,0.0 ],
        [ 1,2,6,"01","Sw-Line-Vl1-Sub1-Sub4",2,1,1,1.0E-4,0.0,0.0,0.0 ],
        [ 1,2,7,"01","Sw-Line-Vl1-Sub1-Sub5",2,1,1,1.0E-4,0.0,0.0,0.0 ],
        [ 2,1,2,"01","Sw-Line-Vl1-Sub2-Sub1",2,1,1,1.0E-4,0.0,0.0,0.0 ],
        [ 2,1,3,"01","Sw-Line-Vl1-Sub2-Sub3",2,1,1,1.0E-4,0.0,0.0,0.0 ],
        [ 2,1,4,"01","Sw-Vsc-Vl1-Sub2-Sub4",2,1,1,1.0E-4,0.0,0.0,0.0 ],
        [ 2,1,5,"01","Sw-Lcc-Vl1-Sub2-Sub5",2,1,1,1.0E-4,0.0,0.0,0.0 ],
        [ 2,1,6,"01","Sw-BoundaryLine-Vl1-Sub2",2,1,1,1.0E-4,0.0,0.0,0.0 ],
        [ 3,1,2,"01","Sw-Line-Vl1-Sub3-Sub2",2,1,1,1.0E-4,0.0,0.0,0.0 ],
        [ 3,1,3,"01","Sw-Load-Vl1-Sub3",2,1,1,1.0E-4,0.0,0.0,0.0 ],
        [ 3,1,4,"01","Sw-T2w-Vl1-Sub3",2,1,1,1.0E-4,0.0,0.0,0.0 ],
        [ 3,1,5,"01","Sw-BoundaryLine-Vl1-Sub3",2,1,1,1.0E-4,0.0,0.0,0.0 ],
        [ 4,1,2,"01","Sw-Vsc-Vl1-Sub4-Sub2",2,1,1,1.0E-4,0.0,0.0,0.0 ],
        [ 4,1,3,"01","Sw-FixedShunt-Vl1-Sub4",2,1,1,1.0E-4,0.0,0.0,0.0 ],
        [ 4,1,4,"01","Sw-T3w-Vl1-Sub4",2,1,1,1.0E-4,0.0,0.0,0.0 ],
        [ 4,1,5,"01","Sw-Line-Vl1-Sub4-sub1",2,1,1,1.0E-4,0.0,0.0,0.0 ],
        [ 4,6,7,"01","Sw-T3w-Vl2-Sub4",2,1,1,1.0E-4,0.0,0.0,0.0 ],
        [ 4,6,8,"01","Sw-SwitchedShunt-Vl2-Sub4",2,1,1,1.0E-4,0.0,0.0,0.0 ],
        [ 4,6,9,"01","Sw-Load-Vl2-Sub4",2,1,1,1.0E-4,0.0,0.0,0.0 ],
        [ 4,10,11,"01","Sw-T3w-Vl3-Sub4",2,1,1,1.0E-4,0.0,0.0,0.0 ],
        [ 4,10,12,"01","Sw-Gen-Vl3-Sub4",2,1,1,1.0E-4,0.0,0.0,0.0 ],
        [ 4,10,13,"01","Sw-StaticVar-Vl3-Sub4",2,1,1,1.0E-4,0.0,0.0,0.0 ],
        [ 5,1,2,"01","Sw-Lcc-Vl1-Sub5-Sub2",2,1,1,1.0E-4,0.0,0.0,0.0 ],
        [ 5,1,3,"01","Sw-BoundaryLine-Vl1-Sub5",2,1,1,1.0E-4,0.0,0.0,0.0 ],
        [ 5,1,4,"01","Sw-Gen-Vl1-Sub5",2,0,1,1.0E-4,0.0,0.0,0.0 ],
        [ 5,1,5,"01","Sw-Load-Vl1-Sub5",2,1,1,1.0E-4,0.0,0.0,0.0 ],
        [ 5,1,6,"01","Sw-Battery-Vl1-Sub5",2,1,1,1.0E-4,0.0,0.0,0.0 ],
        [ 5,1,7,"01","Sw-Line-Vl1-Sub5-Sub1",2,1,1,1.0E-4,0.0,0.0,0.0 ],
        [ 6,1,2,"01","Sw-BoundaryLine-Vl1-Sub6",2,1,1,1.0E-4,0.0,0.0,0.0 ],
        [ 6,1,3,"01","Sw-Load-Vl1-Sub6",2,1,1,1.0E-4,0.0,0.0,0.0 ]
      ]
    },
    "subterm" : {
      "fields" : [ "isub", "inode", "type", "eqid", "ibus", "jbus", "kbus" ],
      "data" : [
        [ 1,3,"B","01",1,2,0 ],
        [ 1,4,"M","01",1,0,0 ],
        [ 1,5,"B","01",1,12,0 ],
        [ 1,6,"B","01",1,6,0 ],
        [ 1,7,"B","01",1,9,0 ],
        [ 2,2,"B","01",2,1,0 ],
        [ 2,3,"B","01",2,3,0 ],
        [ 2,4,"V","Vsc-Vl1-Sub2",2,6,0 ],
        [ 2,5,"D","Lcc-Vl1-Sub2",2,9,0 ],
        [ 2,6,"B","01",2,11,0 ],
        [ 3,2,"B","01",3,2,0 ],
        [ 3,3,"L","01",3,0,0 ],
        [ 3,4,"2","01",3,5,0 ],
        [ 3,5,"B","01",3,4,0 ],
        [ 4,2,"V","Vsc-Vl1-Sub2",6,2,0 ],
        [ 4,3,"F","01",6,0,0 ],
        [ 4,4,"3","01",6,7,8 ],
        [ 4,5,"B","01",6,1,0 ],
        [ 4,7,"3","01",7,6,8 ],
        [ 4,8,"S","01",7,0,0 ],
        [ 4,9,"L","01",7,0,0 ],
        [ 4,11,"3","01",8,6,7 ],
        [ 4,12,"M","01",8,0,0 ],
        [ 4,13,"A","StaticVar-Vl",8,0,0 ],
        [ 5,2,"D","Lcc-Vl1-Sub2",9,2,0 ],
        [ 5,3,"B","01",9,10,0 ],
        [ 5,4,"M","01",9,0,0 ],
        [ 5,5,"L","02",9,0,0 ],
        [ 5,6,"L","01",9,0,0 ],
        [ 5,7,"B","01",9,1,0 ],
        [ 6,2,"B","01",11,2,0 ],
        [ 6,3,"L","01",11,0,0 ]
      ]
    }
  }
}
